Version 4
SHEET 1 1080 680
WIRE 1072 -272 160 -272
WIRE 336 -208 240 -208
WIRE 512 -208 400 -208
WIRE 880 -208 784 -208
WIRE 1072 -208 1072 -272
WIRE 1072 -208 960 -208
WIRE 160 -112 160 -272
WIRE 160 0 160 -32
WIRE 240 0 240 -208
WIRE 240 0 160 0
WIRE 272 0 240 0
WIRE 784 0 784 -208
WIRE 784 0 736 0
WIRE 848 0 784 0
WIRE 512 16 512 -208
WIRE 512 16 336 16
WIRE 576 16 512 16
WIRE 736 16 736 0
WIRE 736 16 656 16
WIRE 1072 16 1072 -208
WIRE 1072 16 912 16
WIRE 272 32 240 32
WIRE 848 32 816 32
WIRE 512 128 512 16
WIRE 240 192 240 32
WIRE 816 192 816 32
WIRE 512 224 512 208
WIRE 1072 224 1072 16
WIRE 512 400 512 224
FLAG 240 192 0
FLAG 816 192 0
FLAG 304 -96 0
FLAG 304 128 0
FLAG 880 -96 0
FLAG 880 128 0
FLAG 576 224 0
SYMBOL OpAmps\\LTC6244HV 304 16 R0
SYMATTR InstName U1
SYMBOL OpAmps\\LTC6244HV 880 16 M180
SYMATTR InstName U2
SYMBOL res 144 -128 R0
SYMATTR InstName R1
SYMATTR Value 10k
SYMBOL res 672 0 R90
WINDOW 0 0 56 VBottom 2
WINDOW 3 32 56 VTop 2
SYMATTR InstName R2
SYMATTR Value 10k
SYMBOL res 976 -224 R90
WINDOW 0 0 56 VBottom 2
WINDOW 3 32 56 VTop 2
SYMATTR InstName R3
SYMATTR Value 100k
SYMBOL polcap 400 -224 R90
WINDOW 0 0 32 VBottom 2
WINDOW 3 32 32 VTop 2
SYMATTR InstName C2
SYMATTR Value 0.1µ
SYMBOL Misc\\battery 304 0 R180
WINDOW 0 24 104 Left 2
WINDOW 3 24 16 Left 2
WINDOW 123 0 0 Left 0
WINDOW 39 0 0 Left 0
SYMATTR InstName V1
SYMATTR Value 15
SYMBOL Misc\\battery 304 144 R180
WINDOW 0 24 104 Left 2
WINDOW 3 24 16 Left 2
WINDOW 123 0 0 Left 0
WINDOW 39 0 0 Left 0
SYMATTR InstName V2
SYMATTR Value 15
SYMBOL Misc\\battery 880 -112 R0
WINDOW 123 0 0 Left 0
WINDOW 39 0 0 Left 0
SYMATTR InstName V3
SYMATTR Value 15
SYMBOL Misc\\battery 880 32 R0
WINDOW 123 0 0 Left 0
WINDOW 39 0 0 Left 0
SYMATTR InstName V4
SYMATTR Value 15
SYMBOL res 496 112 R0
SYMATTR InstName R4
SYMATTR Value 5k
SYMBOL cap 576 208 R90
WINDOW 0 0 32 VBottom 2
WINDOW 3 32 32 VTop 2
SYMATTR InstName C1
SYMATTR Value 10n
TEXT 142 230 Left 2 !.tran 0 100ms 0 1 startup uic
