Version 4
SHEET 1 1548 680
WIRE 128 -544 -32 -544
WIRE 240 -544 208 -544
WIRE 64 -320 64 -368
WIRE -32 -304 -32 -544
WIRE -32 -304 -112 -304
WIRE 32 -304 -32 -304
WIRE 240 -288 240 -544
WIRE 240 -288 96 -288
WIRE 288 -288 240 -288
WIRE 32 -272 -32 -272
WIRE -112 -224 -112 -304
WIRE 64 -192 64 -256
WIRE -32 -16 -32 -272
WIRE 80 -16 -32 -16
WIRE 240 -16 240 -288
WIRE 240 -16 160 -16
WIRE -32 0 -32 -16
FLAG -32 80 0
FLAG 64 -112 0
FLAG 64 -448 0
FLAG -112 -160 0
DATAFLAG 240 -288 ""
DATAFLAG 240 -288 ""
DATAFLAG 240 -288 ""
DATAFLAG 240 -288 ""
SYMBOL res 224 -560 R90
WINDOW 0 0 56 VBottom 2
WINDOW 3 32 56 VTop 2
SYMATTR InstName 100
SYMATTR Value 0.5
SYMBOL res 176 -32 R90
WINDOW 0 0 56 VBottom 2
WINDOW 3 32 56 VTop 2
SYMATTR InstName R2
SYMATTR Value 15k
SYMBOL res -16 96 R180
WINDOW 0 36 76 Left 2
WINDOW 3 36 40 Left 2
SYMATTR InstName R3
SYMATTR Value 15k
SYMBOL polcap -128 -224 R0
WINDOW 3 24 56 Left 2
SYMATTR Value 100µ
SYMATTR InstName C1
SYMATTR Description Capacitor
SYMATTR Type cap
SYMATTR SpiceLine V=10 Irms=2.0226 Rser=0.055 Lser=0
SYMBOL Misc\\battery 64 -464 R0
WINDOW 123 0 0 Left 0
WINDOW 39 0 0 Left 0
SYMATTR InstName V1
SYMATTR Value -15
SYMBOL Misc\\battery 64 -208 R0
WINDOW 123 0 0 Left 0
WINDOW 39 0 0 Left 0
SYMATTR InstName V2
SYMATTR Value -15
SYMBOL OpAmps\\AD746 576 -352 R0
SYMATTR InstName U1
SYMBOL OpAmps\\LTC6244HV 64 -288 R0
SYMATTR InstName U2
TEXT -160 104 Left 2 !;ac dec 5s 1 1meg
TEXT -512 -256 Left 2 !.tran 0 1000ms 0 1ms startup uic
TEXT 288 -152 Left 2 ;così configurato arriva a circa 700Hz max\ndi onda quadra, non è possibile andare più avanti per via dei limiti\ndegli opamp. ad esempio\nT= 2.2*600(R)*1u(C)=... quindi f=757Hz e comunque non funziona benissimo
