Version 4
SHEET 1 1252 680
WIRE 1232 -272 160 -272
WIRE 336 -208 240 -208
WIRE 624 -208 400 -208
WIRE 880 -208 784 -208
WIRE 1232 -208 1232 -272
WIRE 1232 -208 960 -208
WIRE 160 -112 160 -272
WIRE 160 0 160 -32
WIRE 240 0 240 -208
WIRE 240 0 160 0
WIRE 336 0 240 0
WIRE 416 0 416 -16
WIRE 624 0 624 -208
WIRE 656 0 624 0
WIRE 784 0 784 -208
WIRE 784 0 736 0
WIRE 896 0 784 0
WIRE 992 0 992 -48
WIRE 336 16 336 0
WIRE 384 16 336 16
WIRE 896 16 896 0
WIRE 960 16 896 16
WIRE 624 32 624 0
WIRE 624 32 448 32
WIRE 1232 32 1232 -208
WIRE 1232 32 1024 32
WIRE 384 48 336 48
WIRE 960 48 896 48
WIRE 336 80 336 48
WIRE 336 80 256 80
WIRE 896 80 896 48
WIRE 896 80 832 80
WIRE -224 96 -224 16
WIRE -64 96 -64 16
WIRE 416 96 416 64
WIRE 992 112 992 64
WIRE 624 128 624 32
WIRE 256 240 256 80
WIRE 832 240 832 80
WIRE 624 288 624 208
WIRE 624 400 624 288
FLAG 256 240 0
FLAG 832 240 0
FLAG -64 176 0
FLAG -224 176 0
FLAG 688 288 0
FLAG 416 -16 VDD
FLAG 992 112 VDD
FLAG 416 96 VSS
FLAG 992 -48 VSS
FLAG -224 16 VDD
FLAG -64 16 VSS
FLAG 624 400 out
IOPIN 624 400 Out
SYMBOL res 144 -128 R0
SYMATTR InstName R1
SYMATTR Value 10k
SYMBOL res 752 -16 R90
WINDOW 0 0 56 VBottom 2
WINDOW 3 32 56 VTop 2
SYMATTR InstName R2
SYMATTR Value 10k
SYMBOL res 976 -224 R90
WINDOW 0 0 56 VBottom 2
WINDOW 3 32 56 VTop 2
SYMATTR InstName R3
SYMATTR Value 100k
SYMBOL polcap 400 -224 R90
WINDOW 0 0 32 VBottom 2
WINDOW 3 32 32 VTop 2
SYMATTR InstName C2
SYMATTR Value 0.1µ
SYMBOL Misc\\battery -64 80 R0
WINDOW 0 24 104 Left 2
WINDOW 3 24 16 Left 2
WINDOW 123 0 0 Left 0
WINDOW 39 0 0 Left 0
SYMATTR InstName V1
SYMATTR Value -15
SYMBOL Misc\\battery -224 80 R0
WINDOW 0 24 104 Left 2
WINDOW 3 24 16 Left 2
WINDOW 123 0 0 Left 0
WINDOW 39 0 0 Left 0
SYMATTR InstName V2
SYMATTR Value 15
SYMBOL res 608 112 R0
SYMATTR InstName R4
SYMATTR Value 5k
SYMBOL cap 688 272 R90
WINDOW 0 0 32 VBottom 2
WINDOW 3 32 32 VTop 2
SYMATTR InstName C1
SYMATTR Value 10n
SYMBOL OpAmps\\LTC6244HV 416 32 R0
SYMATTR InstName U1
SYMBOL OpAmps\\LTC6244HV 992 32 M180
SYMATTR InstName U2
TEXT -176 288 Left 2 !.tran 0 100ms 0 1 startup uic
